<?xml version="1.0" encoding="UTF-8"?>

<!-- generated on 2025-04-10 23:16:35 by Eclipse SUMO netedit Version 1.19.0
<configuration xmlns:xsi="http://www.w3.org/2001/XMLSchema-instance" xsi:noNamespaceSchemaLocation="http://sumo.dlr.de/xsd/neteditConfiguration.xsd">

    <input>
        <sumocfg-file value="C:\Users\adity\Downloads\AO Project\FT.sumocfg"/>
        <additional-files value="C:\Users\adity\Downloads\Project1.add.xml"/>
        <route-files value="C:\Users\adity\Downloads\Project1.rou.xml"/>
        <sumo-net-file value="C:\Users\adity\Downloads\AO Project\FT.net.xml"/>
    </input>

    <processing>
        <offset.disable-normalization value="true"/>
    </processing>

    <junctions>
        <no-turnarounds value="true"/>
    </junctions>

    <netedit>
        <new-network value="false"/>
    </netedit>

</configuration>
-->

<connections version="1.16" xmlns:xsi="http://www.w3.org/2001/XMLSchema-instance" xsi:noNamespaceSchemaLocation="http://sumo.dlr.de/xsd/connections_file.xsd">
    <connection from="-E2" to="Node2_3_WB" fromLane="0" toLane="0"/>
    <connection from="-E2" to="Node2_3_WB" fromLane="1" toLane="1"/>
    <connection from="-E2" to="Node2_3_WB" fromLane="2" toLane="2"/>

    <connection from="-E3" to="-E2" fromLane="0" toLane="0"/>
    <connection from="-E3" to="-E2" fromLane="1" toLane="1"/>
    <connection from="-E3" to="-E2" fromLane="2" toLane="2"/>

    <connection from="-E8" to="Node1_2_EB" fromLane="0" toLane="0"/>
    <connection from="-E8" to="Node1_2_EB" fromLane="1" toLane="1"/>
    <connection from="-E8" to="Node1_2_EB" fromLane="2" toLane="2"/>

    <connection from="-E9" to="-E8" fromLane="0" toLane="0"/>
    <connection from="-E9" to="-E8" fromLane="1" toLane="1"/>
    <connection from="-E9" to="-E8" fromLane="2" toLane="2"/>

    <connection from="E2"/>

    <connection from="E3"/>

    <connection from="E8" to="E9" fromLane="0" toLane="0"/>
    <connection from="E8" to="E9" fromLane="1" toLane="1"/>
    <connection from="E8" to="E9" fromLane="2" toLane="2"/>

    <connection from="E9" to="-E3" fromLane="0" toLane="0"/>
    <connection from="E9" to="-E3" fromLane="1" toLane="1"/>
    <connection from="E9" to="-E3" fromLane="2" toLane="2"/>
    <connection from="E9" to="Node2_5_NB" fromLane="2" toLane="0"/>
    <connection from="E9" to="Node2_5_NB" fromLane="2" toLane="1"/>
    <connection from="E9" to="Node2_5_NB" fromLane="2" toLane="2"/>

    <connection from="Node1_2_EB"/>

    <connection from="Node1_2_WB" to="E8" fromLane="0" toLane="0"/>
    <connection from="Node1_2_WB" to="E8" fromLane="1" toLane="1"/>
    <connection from="Node1_2_WB" to="E8" fromLane="2" toLane="2"/>

    <connection from="Node2_3_EB"/>

    <connection from="Node2_3_WB" to="Node2_7_NB" fromLane="0" toLane="0"/>
    <connection from="Node2_3_WB" to="Node2_7_NB" fromLane="0" toLane="1"/>
    <connection from="Node2_3_WB" to="Node2_7_NB" fromLane="0" toLane="2"/>
    <connection from="Node2_3_WB" to="Node1_2_WB" fromLane="0" toLane="0"/>
    <connection from="Node2_3_WB" to="Node1_2_WB" fromLane="1" toLane="1"/>
    <connection from="Node2_3_WB" to="Node1_2_WB" fromLane="2" toLane="2"/>
    <connection from="Node2_3_WB" to="Node2_5_SB" fromLane="2" toLane="1"/>
    <connection from="Node2_3_WB" to="Node2_5_SB" fromLane="2" toLane="2"/>

    <connection from="Node2_5_NB"/>

    <connection from="Node2_5_SB"/>

    <connection from="Node2_7_NB"/>

    <connection from="Node2_7_SB" to="Node1_2_WB" fromLane="0" toLane="0"/>
    <connection from="Node2_7_SB" to="Node2_5_SB" fromLane="0" toLane="0"/>
    <connection from="Node2_7_SB" to="Node2_5_SB" fromLane="1" toLane="1"/>
    <connection from="Node2_7_SB" to="Node2_5_SB" fromLane="2" toLane="2"/>
    <connection from="Node2_7_SB" to="Node2_3_EB" fromLane="2" toLane="0"/>
    <connection from="Node2_7_SB" to="Node2_3_EB" fromLane="2" toLane="1"/>
    <connection from="Node2_7_SB" to="Node2_3_EB" fromLane="2" toLane="2"/>

</connections>
