<?xml version="1.0" encoding="UTF-8"?>

<!-- generated on 2025-04-11 22:27:40 by Eclipse SUMO netedit Version 1.19.0
<configuration xmlns:xsi="http://www.w3.org/2001/XMLSchema-instance" xsi:noNamespaceSchemaLocation="http://sumo.dlr.de/xsd/neteditConfiguration.xsd">

    <input>
        <sumocfg-file value="C:\Users\adity\Downloads\AO Project\FT.sumocfg"/>
        <additional-files value="C:\Users\adity\Downloads\AO Project\FT.add.xml"/>
        <route-files value="C:\Users\adity\Downloads\AO Project\FT.rou.xml"/>
        <sumo-net-file value="C:\Users\adity\Downloads\AO Project\FT.net.xml"/>
    </input>

    <output>
        <output-file value="C:\Users\adity\Downloads\AO Project\FT.net.xml"/>
    </output>

    <processing>
        <geometry.min-radius.fix.railways value="false"/>
        <geometry.max-grade.fix value="false"/>
        <offset.disable-normalization value="true"/>
        <lefthand value="0"/>
    </processing>

    <junctions>
        <no-turnarounds value="true"/>
        <junctions.corner-detail value="5"/>
        <junctions.limit-turn-speed value="5.50"/>
        <rectangular-lane-cut value="0"/>
    </junctions>

    <pedestrian>
        <walkingareas value="0"/>
    </pedestrian>

</configuration>
-->

<net version="1.16" junctionCornerDetail="5" limitTurnSpeed="5.50" xmlns:xsi="http://www.w3.org/2001/XMLSchema-instance" xsi:noNamespaceSchemaLocation="http://sumo.dlr.de/xsd/net_file.xsd">

    <location netOffset="0.00,0.00" convBoundary="-50.88,-67.33,216.40,171.36" origBoundary="-10000000000.00,-10000000000.00,10000000000.00,10000000000.00" projParameter="!"/>

    <edge id=":Node1_0" function="internal">
        <lane id=":Node1_0_0" index="0" speed="11.12" length="28.38" shape="-41.26,61.74 -48.96,60.64 -54.46,57.34 -57.76,51.84 -58.86,44.14"/>
        <lane id=":Node1_0_1" index="1" speed="10.10" length="23.22" shape="-41.26,58.54 -47.56,57.64 -52.06,54.94 -54.76,50.44 -55.66,44.14"/>
        <lane id=":Node1_0_2" index="2" speed="8.96" length="18.06" shape="-41.26,55.34 -46.16,54.64 -49.66,52.54 -51.76,49.04 -52.46,44.14"/>
    </edge>
    <edge id=":Node1_3" function="internal">
        <lane id=":Node1_3_0" index="0" speed="3.90" length="2.58" shape="-42.86,44.14 -42.76,44.84 -42.46,45.34 -41.96,45.64 -41.26,45.74"/>
        <lane id=":Node1_3_1" index="1" speed="6.08" length="7.74" shape="-46.06,44.14 -45.76,46.24 -44.86,47.74 -43.36,48.64 -41.26,48.94"/>
        <lane id=":Node1_3_2" index="2" speed="7.66" length="12.90" shape="-49.26,44.14 -48.76,47.64 -47.26,50.14 -44.76,51.64 -41.26,52.14"/>
    </edge>
    <edge id=":Node2_0" function="internal">
        <lane id=":Node2_0_0" index="0" speed="6.63" length="9.35" shape="78.91,61.72 76.36,62.09 74.54,63.17 73.44,64.97 73.05,67.49"/>
        <lane id=":Node2_0_1" index="1" speed="7.44" length="12.03" shape="78.91,61.72 74.96,62.09 72.14,63.16 70.44,64.96 69.85,67.46"/>
        <lane id=":Node2_0_2" index="2" speed="8.20" length="14.86" shape="78.91,61.72 73.56,62.09 69.74,63.16 67.44,64.94 66.65,67.44"/>
    </edge>
    <edge id=":Node2_3" function="internal">
        <lane id=":Node2_3_0" index="0" speed="13.89" length="27.42" shape="78.91,61.72 51.49,61.74"/>
        <lane id=":Node2_3_1" index="1" speed="13.89" length="27.42" shape="78.90,58.52 51.49,58.54"/>
        <lane id=":Node2_3_2" index="2" speed="13.89" length="27.42" shape="78.90,55.32 51.49,55.34"/>
    </edge>
    <edge id=":Node2_6" function="internal">
        <lane id=":Node2_6_0" index="0" speed="10.86" length="27.31" shape="78.90,55.32 70.80,54.37 65.03,51.49 61.61,46.69 60.53,39.96"/>
        <lane id=":Node2_6_1" index="1" speed="10.34" length="24.66" shape="78.90,55.32 72.20,54.37 67.43,51.50 64.61,46.71 63.73,40.00"/>
    </edge>
    <edge id=":Node2_8" function="internal">
        <lane id=":Node2_8_0" index="0" speed="6.49" length="9.03" shape="57.05,67.35 56.72,64.90 55.68,63.14 53.94,62.09 51.49,61.74"/>
    </edge>
    <edge id=":Node2_9" function="internal">
        <lane id=":Node2_9_0" index="0" speed="13.89" length="27.42" shape="57.05,67.35 57.33,39.92"/>
        <lane id=":Node2_9_1" index="1" speed="13.89" length="27.42" shape="60.25,67.38 60.53,39.96"/>
        <lane id=":Node2_9_2" index="2" speed="13.89" length="27.42" shape="63.45,67.41 63.73,40.00"/>
    </edge>
    <edge id=":Node2_12" function="internal">
        <lane id=":Node2_12_0" index="0" speed="11.47" length="30.03" shape="63.45,67.41 64.49,57.93 67.40,51.15 72.20,47.08 78.89,45.72"/>
        <lane id=":Node2_12_1" index="1" speed="10.96" length="27.33" shape="63.45,67.41 64.48,59.33 67.39,53.55 72.20,50.08 78.89,48.92"/>
        <lane id=":Node2_12_2" index="2" speed="10.44" length="24.73" shape="63.45,67.41 64.47,60.73 67.38,55.95 72.19,53.08 78.89,52.12"/>
    </edge>
    <edge id=":Node3_0" function="internal">
        <lane id=":Node3_0_0" index="0" speed="11.12" length="28.37" shape="224.40,43.95 223.30,51.64 220.01,57.14 214.51,60.44 206.82,61.55"/>
        <lane id=":Node3_0_1" index="1" speed="10.10" length="23.21" shape="221.20,43.95 220.30,50.24 217.60,54.74 213.11,57.45 206.82,58.35"/>
        <lane id=":Node3_0_2" index="2" speed="8.96" length="18.05" shape="218.00,43.95 217.30,48.84 215.20,52.34 211.71,54.45 206.81,55.15"/>
    </edge>
    <edge id=":Node4_0" function="internal">
        <lane id=":Node4_0_0" index="0" speed="11.12" length="28.45" shape="-58.88,-57.70 -57.78,-65.42 -54.47,-70.93 -48.95,-74.22 -41.22,-75.30"/>
        <lane id=":Node4_0_1" index="1" speed="10.10" length="23.28" shape="-55.68,-57.70 -54.78,-64.02 -52.07,-68.52 -47.55,-71.22 -41.23,-72.10"/>
        <lane id=":Node4_0_2" index="2" speed="8.96" length="18.11" shape="-52.48,-57.70 -51.78,-62.61 -49.67,-66.12 -46.16,-68.21 -41.24,-68.90"/>
    </edge>
    <edge id=":Node4_3" function="internal">
        <lane id=":Node4_3_0" index="0" speed="3.90" length="2.59" shape="-41.27,-59.30 -41.98,-59.20 -42.48,-58.90 -42.78,-58.40 -42.88,-57.70"/>
        <lane id=":Node4_3_1" index="1" speed="6.08" length="7.76" shape="-41.26,-62.50 -43.37,-62.20 -44.87,-61.31 -45.78,-59.80 -46.08,-57.70"/>
        <lane id=":Node4_3_2" index="2" speed="7.66" length="12.93" shape="-41.25,-65.70 -44.76,-65.21 -47.27,-63.71 -48.78,-61.21 -49.28,-57.70"/>
    </edge>
    <edge id=":Node5_0" function="internal">
        <lane id=":Node5_0_0" index="0" speed="13.89" length="27.17" shape="52.93,-74.99 80.09,-74.94"/>
        <lane id=":Node5_0_1" index="1" speed="13.89" length="27.17" shape="52.92,-71.79 80.09,-71.74"/>
        <lane id=":Node5_0_2" index="2" speed="13.89" length="27.17" shape="52.91,-68.59 80.09,-68.54"/>
    </edge>
    <edge id=":Node5_3" function="internal">
        <lane id=":Node5_3_0" index="0" speed="11.38" length="29.98" shape="52.91,-68.59 62.39,-67.60 69.14,-64.70 73.15,-59.89 74.43,-53.17"/>
        <lane id=":Node5_3_1" index="1" speed="10.87" length="27.25" shape="52.91,-68.59 60.99,-67.61 66.74,-64.72 70.15,-59.92 71.23,-53.21"/>
        <lane id=":Node5_3_2" index="2" speed="10.35" length="24.61" shape="52.91,-68.59 59.59,-67.62 64.34,-64.73 67.15,-59.94 68.03,-53.25"/>
    </edge>
    <edge id=":Node6_0" function="internal">
        <lane id=":Node6_0_0" index="0" speed="11.12" length="28.36" shape="206.77,-74.84 214.46,-73.73 219.95,-70.43 223.25,-64.94 224.35,-57.24"/>
        <lane id=":Node6_0_1" index="1" speed="10.10" length="23.20" shape="206.77,-71.64 213.06,-70.73 217.55,-68.03 220.25,-63.54 221.15,-57.24"/>
        <lane id=":Node6_0_2" index="2" speed="8.96" length="18.05" shape="206.76,-68.44 211.66,-67.73 215.15,-65.63 217.25,-62.14 217.95,-57.24"/>
    </edge>

    <edge id="-E2" from="Node6" to="Node3" priority="-1">
        <lane id="-E2_0" index="0" speed="13.89" length="101.19" shape="224.35,-57.24 224.40,43.95"/>
        <lane id="-E2_1" index="1" speed="13.89" length="101.19" shape="221.15,-57.24 221.20,43.95"/>
        <lane id="-E2_2" index="2" speed="13.89" length="101.19" shape="217.95,-57.24 218.00,43.95"/>
    </edge>
    <edge id="-E3" from="Node5" to="Node6" priority="-1">
        <lane id="-E3_0" index="0" speed="13.89" length="126.68" shape="80.09,-74.94 206.77,-74.84"/>
        <lane id="-E3_1" index="1" speed="13.89" length="126.68" shape="80.09,-71.74 206.77,-71.64"/>
        <lane id="-E3_2" index="2" speed="13.89" length="126.68" shape="80.09,-68.54 206.76,-68.44"/>
    </edge>
    <edge id="-E8" from="Node4" to="Node1" priority="-1">
        <lane id="-E8_0" index="0" speed="13.89" length="101.84" shape="-42.88,-57.70 -42.86,44.14"/>
        <lane id="-E8_1" index="1" speed="13.89" length="101.84" shape="-46.08,-57.70 -46.06,44.14"/>
        <lane id="-E8_2" index="2" speed="13.89" length="101.84" shape="-49.28,-57.70 -49.26,44.14"/>
    </edge>
    <edge id="-E9" from="Node5" to="Node4" priority="-1">
        <lane id="-E9_0" index="0" speed="13.89" length="94.16" shape="52.88,-58.99 -41.27,-59.30"/>
        <lane id="-E9_1" index="1" speed="13.89" length="94.16" shape="52.89,-62.19 -41.26,-62.50"/>
        <lane id="-E9_2" index="2" speed="13.89" length="94.16" shape="52.90,-65.39 -41.25,-65.70"/>
    </edge>
    <edge id="E2" from="Node3" to="Node6" priority="-1">
        <lane id="E2_0" index="0" speed="13.89" length="101.19" shape="208.40,43.95 208.35,-57.24"/>
        <lane id="E2_1" index="1" speed="13.89" length="101.19" shape="211.60,43.95 211.55,-57.24"/>
        <lane id="E2_2" index="2" speed="13.89" length="101.19" shape="214.80,43.95 214.75,-57.24"/>
    </edge>
    <edge id="E3" from="Node6" to="Node5" priority="-1">
        <lane id="E3_0" index="0" speed="13.89" length="126.68" shape="206.76,-58.84 80.08,-58.94"/>
        <lane id="E3_1" index="1" speed="13.89" length="126.68" shape="206.76,-62.04 80.08,-62.14"/>
        <lane id="E3_2" index="2" speed="13.89" length="126.68" shape="206.76,-65.24 80.08,-65.34"/>
    </edge>
    <edge id="E8" from="Node1" to="Node4" priority="-1">
        <lane id="E8_0" index="0" speed="13.89" length="101.84" shape="-58.86,44.14 -58.88,-57.70"/>
        <lane id="E8_1" index="1" speed="13.89" length="101.84" shape="-55.66,44.14 -55.68,-57.70"/>
        <lane id="E8_2" index="2" speed="13.89" length="101.84" shape="-52.46,44.14 -52.48,-57.70"/>
    </edge>
    <edge id="E9" from="Node4" to="Node5" priority="-1">
        <lane id="E9_0" index="0" speed="13.89" length="94.16" shape="-41.22,-75.30 52.93,-74.99"/>
        <lane id="E9_1" index="1" speed="13.89" length="94.16" shape="-41.23,-72.10 52.92,-71.79"/>
        <lane id="E9_2" index="2" speed="13.89" length="94.16" shape="-41.24,-68.90 52.91,-68.59"/>
    </edge>
    <edge id="Node1_2_EB" from="Node1" to="Node2" priority="-1">
        <lane id="Node1_2_EB_0" index="0" speed="13.89" length="92.75" shape="-41.26,45.74 51.49,45.74"/>
        <lane id="Node1_2_EB_1" index="1" speed="13.89" length="92.75" shape="-41.26,48.94 51.49,48.94"/>
        <lane id="Node1_2_EB_2" index="2" speed="13.89" length="92.75" shape="-41.26,52.14 51.49,52.14"/>
    </edge>
    <edge id="Node1_2_WB" from="Node2" to="Node1" priority="-1">
        <lane id="Node1_2_WB_0" index="0" speed="13.89" length="92.75" shape="51.49,61.74 -41.26,61.74"/>
        <lane id="Node1_2_WB_1" index="1" speed="13.89" length="92.75" shape="51.49,58.54 -41.26,58.54"/>
        <lane id="Node1_2_WB_2" index="2" speed="13.89" length="92.75" shape="51.49,55.34 -41.26,55.34"/>
    </edge>
    <edge id="Node2_3_EB" from="Node2" to="Node3" priority="-1">
        <lane id="Node2_3_EB_0" index="0" speed="13.89" length="127.91" shape="78.89,45.72 206.80,45.55"/>
        <lane id="Node2_3_EB_1" index="1" speed="13.89" length="127.91" shape="78.89,48.92 206.80,48.75"/>
        <lane id="Node2_3_EB_2" index="2" speed="13.89" length="127.91" shape="78.89,52.12 206.81,51.95"/>
    </edge>
    <edge id="Node2_3_WB" from="Node3" to="Node2" priority="-1">
        <lane id="Node2_3_WB_0" index="0" speed="13.89" length="127.91" shape="206.82,61.55 78.91,61.72"/>
        <lane id="Node2_3_WB_1" index="1" speed="13.89" length="127.91" shape="206.82,58.35 78.90,58.52"/>
        <lane id="Node2_3_WB_2" index="2" speed="13.89" length="127.91" shape="206.81,55.15 78.90,55.32"/>
    </edge>
    <edge id="Node2_5_NB" from="Node5" to="Node2" priority="-1">
        <lane id="Node2_5_NB_0" index="0" speed="13.89" length="93.29" shape="74.43,-53.17 73.33,40.11"/>
        <lane id="Node2_5_NB_1" index="1" speed="13.89" length="93.29" shape="71.23,-53.21 70.13,40.07"/>
        <lane id="Node2_5_NB_2" index="2" speed="13.89" length="93.29" shape="68.03,-53.25 66.93,40.03"/>
    </edge>
    <edge id="Node2_5_SB" from="Node2" to="Node5" priority="-1">
        <lane id="Node2_5_SB_0" index="0" speed="13.89" length="93.29" shape="57.33,39.92 58.43,-53.36"/>
        <lane id="Node2_5_SB_1" index="1" speed="13.89" length="93.29" shape="60.53,39.96 61.63,-53.33"/>
        <lane id="Node2_5_SB_2" index="2" speed="13.89" length="93.29" shape="63.73,40.00 64.83,-53.29"/>
    </edge>
    <edge id="Node2_7_NB" from="Node2" to="Node7" priority="-1">
        <lane id="Node2_7_NB_0" index="0" speed="13.89" length="103.94" shape="73.05,67.49 72.15,171.43"/>
        <lane id="Node2_7_NB_1" index="1" speed="13.89" length="103.94" shape="69.85,67.46 68.95,171.40"/>
        <lane id="Node2_7_NB_2" index="2" speed="13.89" length="103.94" shape="66.65,67.44 65.75,171.37"/>
    </edge>
    <edge id="Node2_7_SB" from="Node7" to="Node2" priority="-1">
        <lane id="Node2_7_SB_0" index="0" speed="13.89" length="103.94" shape="56.15,171.29 57.05,67.35"/>
        <lane id="Node2_7_SB_1" index="1" speed="13.89" length="103.94" shape="59.35,171.32 60.25,67.38"/>
        <lane id="Node2_7_SB_2" index="2" speed="13.89" length="103.94" shape="62.55,171.35 63.45,67.41"/>
    </edge>

    <tlLogic id="Node2" type="static" programID="0" offset="0">
        <phase duration="42" state="GGGGGGGGrrrrrrr"/>
        <phase duration="3"  state="yyyyyyyyrrrrrrr"/>
        <phase duration="42" state="GGGrrrrrGGGGGGG"/>
        <phase duration="3"  state="yyyrrrrryyyyyyy"/>
    </tlLogic>

    <junction id="Node1" type="priority" x="-50.86" y="53.74" incLanes="Node1_2_WB_0 Node1_2_WB_1 Node1_2_WB_2 -E8_0 -E8_1 -E8_2" intLanes=":Node1_0_0 :Node1_0_1 :Node1_0_2 :Node1_3_0 :Node1_3_1 :Node1_3_2" shape="-41.26,63.34 -41.26,44.14 -60.46,44.14 -59.93,50.01 -58.33,54.81 -55.66,58.54 -51.93,61.21 -47.13,62.81">
        <request index="0" response="000000" foes="000000" cont="0"/>
        <request index="1" response="000000" foes="000000" cont="0"/>
        <request index="2" response="000000" foes="000000" cont="0"/>
        <request index="3" response="000000" foes="000000" cont="0"/>
        <request index="4" response="000000" foes="000000" cont="0"/>
        <request index="5" response="000000" foes="000000" cont="0"/>
    </junction>
    <junction id="Node2" type="traffic_light" x="65.17" y="53.74" incLanes="Node2_3_WB_0 Node2_3_WB_1 Node2_3_WB_2 Node2_5_NB_0 Node2_5_NB_1 Node2_5_NB_2 Node1_2_EB_0 Node1_2_EB_1 Node1_2_EB_2 Node2_7_SB_0 Node2_7_SB_1 Node2_7_SB_2" intLanes=":Node2_0_0 :Node2_0_1 :Node2_0_2 :Node2_3_0 :Node2_3_1 :Node2_3_2 :Node2_6_0 :Node2_6_1 :Node2_8_0 :Node2_9_0 :Node2_9_1 :Node2_9_2 :Node2_12_0 :Node2_12_1 :Node2_12_2" shape="78.91,63.32 78.88,44.12 76.67,43.68 75.90,43.13 75.35,42.35 75.03,41.35 74.93,40.13 55.73,39.90 55.24,42.26 54.65,43.08 53.82,43.67 52.77,44.02 51.49,44.14 51.49,63.34 53.70,63.78 54.48,64.34 55.03,65.12 55.35,66.12 55.45,67.34 74.65,67.51 75.14,65.18 75.73,64.37 76.56,63.79 77.62,63.44">
        <request index="0"  response="000000000000000" foes="000000000000000" cont="0"/>
        <request index="1"  response="000000000000000" foes="000000000000000" cont="0"/>
        <request index="2"  response="000000000000000" foes="000000000000000" cont="0"/>
        <request index="3"  response="000000000000000" foes="111111100000000" cont="0"/>
        <request index="4"  response="000000000000000" foes="111111100000000" cont="0"/>
        <request index="5"  response="000000000000000" foes="111111100000000" cont="0"/>
        <request index="6"  response="000000000000000" foes="111111000000000" cont="0"/>
        <request index="7"  response="000000000000000" foes="111111000000000" cont="0"/>
        <request index="8"  response="000000000111000" foes="000000000111000" cont="0"/>
        <request index="9"  response="000000011111000" foes="000000011111000" cont="0"/>
        <request index="10" response="000000011111000" foes="000000011111000" cont="0"/>
        <request index="11" response="000000011111000" foes="000000011111000" cont="0"/>
        <request index="12" response="000000011111000" foes="000000011111000" cont="0"/>
        <request index="13" response="000000011111000" foes="000000011111000" cont="0"/>
        <request index="14" response="000000011111000" foes="000000011111000" cont="0"/>
    </junction>
    <junction id="Node3" type="priority" x="216.40" y="53.54" incLanes="-E2_0 -E2_1 -E2_2 Node2_3_EB_0 Node2_3_EB_1 Node2_3_EB_2" intLanes=":Node3_0_0 :Node3_0_1 :Node3_0_2" shape="226.00,43.94 206.80,43.95 206.82,63.15 212.68,62.61 217.48,61.01 221.21,58.34 223.87,54.60 225.47,49.81">
        <request index="0" response="000" foes="000" cont="0"/>
        <request index="1" response="000" foes="000" cont="0"/>
        <request index="2" response="000" foes="000" cont="0"/>
    </junction>
    <junction id="Node4" type="priority" x="-50.88" y="-67.33" incLanes="E8_0 E8_1 E8_2 -E9_0 -E9_1 -E9_2" intLanes=":Node4_0_0 :Node4_0_1 :Node4_0_2 :Node4_3_0 :Node4_3_1 :Node4_3_2" shape="-60.48,-57.70 -41.28,-57.70 -41.22,-76.90 -47.10,-76.38 -51.92,-74.79 -55.66,-72.13 -58.34,-68.39 -59.94,-63.58">
        <request index="0" response="000000" foes="000000" cont="0"/>
        <request index="1" response="000000" foes="000000" cont="0"/>
        <request index="2" response="000000" foes="000000" cont="0"/>
        <request index="3" response="000000" foes="000000" cont="0"/>
        <request index="4" response="000000" foes="000000" cont="0"/>
        <request index="5" response="000000" foes="000000" cont="0"/>
    </junction>
    <junction id="Node5" type="traffic_light" x="66.59" y="-66.95" incLanes="E3_0 E3_1 E3_2 E9_0 E9_1 E9_2 Node2_5_SB_0 Node2_5_SB_1 Node2_5_SB_2" intLanes=":Node5_0_0 :Node5_0_1 :Node5_0_2 :Node5_3_0 :Node5_3_1 :Node5_3_2" shape="80.08,-57.34 80.09,-76.54 52.94,-76.59 52.88,-57.39 55.09,-56.94 55.86,-56.38 56.41,-55.61 56.73,-54.60 56.83,-53.38 76.03,-53.16 76.50,-55.48 77.07,-56.29 77.85,-56.88 78.85,-57.22">
        <request index="0" response="000000" foes="000000" cont="0"/>
        <request index="1" response="000000" foes="000000" cont="0"/>
        <request index="2" response="000000" foes="000000" cont="0"/>
        <request index="3" response="000000" foes="000000" cont="0"/>
        <request index="4" response="000000" foes="000000" cont="0"/>
        <request index="5" response="000000" foes="000000" cont="0"/>
    </junction>
    <junction id="Node6" type="priority" x="216.35" y="-66.83" incLanes="E2_0 E2_1 E2_2 -E3_0 -E3_1 -E3_2" intLanes=":Node6_0_0 :Node6_0_1 :Node6_0_2" shape="206.75,-57.24 225.95,-57.25 225.42,-63.11 223.82,-67.90 221.15,-71.63 217.42,-74.30 212.63,-75.90 206.77,-76.44">
        <request index="0" response="000" foes="000" cont="0"/>
        <request index="1" response="000" foes="000" cont="0"/>
        <request index="2" response="000" foes="000" cont="0"/>
    </junction>
    <junction id="Node7" type="dead_end" x="64.15" y="171.36" incLanes="Node2_7_NB_0 Node2_7_NB_1 Node2_7_NB_2" intLanes="" shape="64.15,171.36 73.75,171.44 64.15,171.36"/>

    <connection from="-E2" to="Node2_3_WB" fromLane="0" toLane="0" via=":Node3_0_0" dir="l" state="M"/>
    <connection from="-E2" to="Node2_3_WB" fromLane="1" toLane="1" via=":Node3_0_1" dir="l" state="M"/>
    <connection from="-E2" to="Node2_3_WB" fromLane="2" toLane="2" via=":Node3_0_2" dir="l" state="M"/>
    <connection from="-E3" to="-E2" fromLane="0" toLane="0" via=":Node6_0_0" dir="l" state="M"/>
    <connection from="-E3" to="-E2" fromLane="1" toLane="1" via=":Node6_0_1" dir="l" state="M"/>
    <connection from="-E3" to="-E2" fromLane="2" toLane="2" via=":Node6_0_2" dir="l" state="M"/>
    <connection from="-E8" to="Node1_2_EB" fromLane="0" toLane="0" via=":Node1_3_0" dir="r" state="M"/>
    <connection from="-E8" to="Node1_2_EB" fromLane="1" toLane="1" via=":Node1_3_1" dir="r" state="M"/>
    <connection from="-E8" to="Node1_2_EB" fromLane="2" toLane="2" via=":Node1_3_2" dir="r" state="M"/>
    <connection from="-E9" to="-E8" fromLane="0" toLane="0" via=":Node4_3_0" dir="r" state="M"/>
    <connection from="-E9" to="-E8" fromLane="1" toLane="1" via=":Node4_3_1" dir="r" state="M"/>
    <connection from="-E9" to="-E8" fromLane="2" toLane="2" via=":Node4_3_2" dir="r" state="M"/>
    <connection from="E8" to="E9" fromLane="0" toLane="0" via=":Node4_0_0" dir="l" state="M"/>
    <connection from="E8" to="E9" fromLane="1" toLane="1" via=":Node4_0_1" dir="l" state="M"/>
    <connection from="E8" to="E9" fromLane="2" toLane="2" via=":Node4_0_2" dir="l" state="M"/>
    <connection from="E9" to="-E3" fromLane="0" toLane="0" via=":Node5_0_0" dir="s" state="M"/>
    <connection from="E9" to="-E3" fromLane="1" toLane="1" via=":Node5_0_1" dir="s" state="M"/>
    <connection from="E9" to="-E3" fromLane="2" toLane="2" via=":Node5_0_2" dir="s" state="M"/>
    <connection from="E9" to="Node2_5_NB" fromLane="2" toLane="0" via=":Node5_3_0" dir="l" state="M"/>
    <connection from="E9" to="Node2_5_NB" fromLane="2" toLane="1" via=":Node5_3_1" dir="l" state="M"/>
    <connection from="E9" to="Node2_5_NB" fromLane="2" toLane="2" via=":Node5_3_2" dir="l" state="M"/>
    <connection from="Node1_2_WB" to="E8" fromLane="0" toLane="0" via=":Node1_0_0" dir="l" state="M"/>
    <connection from="Node1_2_WB" to="E8" fromLane="1" toLane="1" via=":Node1_0_1" dir="l" state="M"/>
    <connection from="Node1_2_WB" to="E8" fromLane="2" toLane="2" via=":Node1_0_2" dir="l" state="M"/>
    <connection from="Node2_3_WB" to="Node2_7_NB" fromLane="0" toLane="0" via=":Node2_0_0" tl="Node2" linkIndex="0" dir="r" state="O"/>
    <connection from="Node2_3_WB" to="Node2_7_NB" fromLane="0" toLane="1" via=":Node2_0_1" tl="Node2" linkIndex="1" dir="r" state="O"/>
    <connection from="Node2_3_WB" to="Node2_7_NB" fromLane="0" toLane="2" via=":Node2_0_2" tl="Node2" linkIndex="2" dir="r" state="O"/>
    <connection from="Node2_3_WB" to="Node1_2_WB" fromLane="0" toLane="0" via=":Node2_3_0" tl="Node2" linkIndex="3" dir="s" state="O"/>
    <connection from="Node2_3_WB" to="Node1_2_WB" fromLane="1" toLane="1" via=":Node2_3_1" tl="Node2" linkIndex="4" dir="s" state="O"/>
    <connection from="Node2_3_WB" to="Node1_2_WB" fromLane="2" toLane="2" via=":Node2_3_2" tl="Node2" linkIndex="5" dir="s" state="O"/>
    <connection from="Node2_3_WB" to="Node2_5_SB" fromLane="2" toLane="1" via=":Node2_6_0" tl="Node2" linkIndex="6" dir="l" state="O"/>
    <connection from="Node2_3_WB" to="Node2_5_SB" fromLane="2" toLane="2" via=":Node2_6_1" tl="Node2" linkIndex="7" dir="l" state="O"/>
    <connection from="Node2_7_SB" to="Node1_2_WB" fromLane="0" toLane="0" via=":Node2_8_0" tl="Node2" linkIndex="8" dir="r" state="o"/>
    <connection from="Node2_7_SB" to="Node2_5_SB" fromLane="0" toLane="0" via=":Node2_9_0" tl="Node2" linkIndex="9" dir="s" state="o"/>
    <connection from="Node2_7_SB" to="Node2_5_SB" fromLane="1" toLane="1" via=":Node2_9_1" tl="Node2" linkIndex="10" dir="s" state="o"/>
    <connection from="Node2_7_SB" to="Node2_5_SB" fromLane="2" toLane="2" via=":Node2_9_2" tl="Node2" linkIndex="11" dir="s" state="o"/>
    <connection from="Node2_7_SB" to="Node2_3_EB" fromLane="2" toLane="0" via=":Node2_12_0" tl="Node2" linkIndex="12" dir="l" state="o"/>
    <connection from="Node2_7_SB" to="Node2_3_EB" fromLane="2" toLane="1" via=":Node2_12_1" tl="Node2" linkIndex="13" dir="l" state="o"/>
    <connection from="Node2_7_SB" to="Node2_3_EB" fromLane="2" toLane="2" via=":Node2_12_2" tl="Node2" linkIndex="14" dir="l" state="o"/>

    <connection from=":Node1_0" to="E8" fromLane="0" toLane="0" dir="l" state="M"/>
    <connection from=":Node1_0" to="E8" fromLane="1" toLane="1" dir="l" state="M"/>
    <connection from=":Node1_0" to="E8" fromLane="2" toLane="2" dir="l" state="M"/>
    <connection from=":Node1_3" to="Node1_2_EB" fromLane="0" toLane="0" dir="r" state="M"/>
    <connection from=":Node1_3" to="Node1_2_EB" fromLane="1" toLane="1" dir="r" state="M"/>
    <connection from=":Node1_3" to="Node1_2_EB" fromLane="2" toLane="2" dir="r" state="M"/>
    <connection from=":Node2_0" to="Node2_7_NB" fromLane="0" toLane="0" dir="r" state="M"/>
    <connection from=":Node2_0" to="Node2_7_NB" fromLane="1" toLane="1" dir="r" state="M"/>
    <connection from=":Node2_0" to="Node2_7_NB" fromLane="2" toLane="2" dir="r" state="M"/>
    <connection from=":Node2_3" to="Node1_2_WB" fromLane="0" toLane="0" dir="s" state="M"/>
    <connection from=":Node2_3" to="Node1_2_WB" fromLane="1" toLane="1" dir="s" state="M"/>
    <connection from=":Node2_3" to="Node1_2_WB" fromLane="2" toLane="2" dir="s" state="M"/>
    <connection from=":Node2_6" to="Node2_5_SB" fromLane="0" toLane="1" dir="l" state="M"/>
    <connection from=":Node2_6" to="Node2_5_SB" fromLane="1" toLane="2" dir="l" state="M"/>
    <connection from=":Node2_8" to="Node1_2_WB" fromLane="0" toLane="0" dir="r" state="M"/>
    <connection from=":Node2_9" to="Node2_5_SB" fromLane="0" toLane="0" dir="s" state="M"/>
    <connection from=":Node2_9" to="Node2_5_SB" fromLane="1" toLane="1" dir="s" state="M"/>
    <connection from=":Node2_9" to="Node2_5_SB" fromLane="2" toLane="2" dir="s" state="M"/>
    <connection from=":Node2_12" to="Node2_3_EB" fromLane="0" toLane="0" dir="l" state="M"/>
    <connection from=":Node2_12" to="Node2_3_EB" fromLane="1" toLane="1" dir="l" state="M"/>
    <connection from=":Node2_12" to="Node2_3_EB" fromLane="2" toLane="2" dir="l" state="M"/>
    <connection from=":Node3_0" to="Node2_3_WB" fromLane="0" toLane="0" dir="l" state="M"/>
    <connection from=":Node3_0" to="Node2_3_WB" fromLane="1" toLane="1" dir="l" state="M"/>
    <connection from=":Node3_0" to="Node2_3_WB" fromLane="2" toLane="2" dir="l" state="M"/>
    <connection from=":Node4_0" to="E9" fromLane="0" toLane="0" dir="l" state="M"/>
    <connection from=":Node4_0" to="E9" fromLane="1" toLane="1" dir="l" state="M"/>
    <connection from=":Node4_0" to="E9" fromLane="2" toLane="2" dir="l" state="M"/>
    <connection from=":Node4_3" to="-E8" fromLane="0" toLane="0" dir="r" state="M"/>
    <connection from=":Node4_3" to="-E8" fromLane="1" toLane="1" dir="r" state="M"/>
    <connection from=":Node4_3" to="-E8" fromLane="2" toLane="2" dir="r" state="M"/>
    <connection from=":Node5_0" to="-E3" fromLane="0" toLane="0" dir="s" state="M"/>
    <connection from=":Node5_0" to="-E3" fromLane="1" toLane="1" dir="s" state="M"/>
    <connection from=":Node5_0" to="-E3" fromLane="2" toLane="2" dir="s" state="M"/>
    <connection from=":Node5_3" to="Node2_5_NB" fromLane="0" toLane="0" dir="l" state="M"/>
    <connection from=":Node5_3" to="Node2_5_NB" fromLane="1" toLane="1" dir="l" state="M"/>
    <connection from=":Node5_3" to="Node2_5_NB" fromLane="2" toLane="2" dir="l" state="M"/>
    <connection from=":Node6_0" to="-E2" fromLane="0" toLane="0" dir="l" state="M"/>
    <connection from=":Node6_0" to="-E2" fromLane="1" toLane="1" dir="l" state="M"/>
    <connection from=":Node6_0" to="-E2" fromLane="2" toLane="2" dir="l" state="M"/>

</net>
