<?xml version="1.0" encoding="UTF-8"?>

<!-- generated on 2025-04-11 22:27:40 by Eclipse SUMO netedit Version 1.19.0
-->

<routes xmlns:xsi="http://www.w3.org/2001/XMLSchema-instance" xsi:noNamespaceSchemaLocation="http://sumo.dlr.de/xsd/routes_file.xsd">
    <!-- Vehicles, persons and containers (sorted by depart) -->
    <flow id="f_0" begin="0.00" from="E9" to="Node2_3_WB" end="3600.00" vehsPerHour="1800"/>
    <flow id="f_1" begin="0.00" from="Node2_7_SB" to="Node2_3_EB" end="3600.00" vehsPerHour="1800"/>
    <flow id="f_2" begin="0.00" from="Node2_7_SB" to="Node2_5_SB" via="Node1_2_WB E9" end="3600.00" vehsPerHour="1800"/>
    <flow id="f_3" begin="0.00" from="Node2_7_SB" to="Node2_5_SB" end="3600.00" vehsPerHour="1800"/>
    <flow id="f_4" begin="0.00" from="Node2_3_WB" to="E8" end="3600.00" vehsPerHour="1800"/>
    <flow id="f_5" begin="0.00" from="Node2_3_WB" to="Node2_7_NB" end="3600.00" vehsPerHour="1800"/>
</routes>
