<?xml version="1.0" encoding="UTF-8"?>

<!-- generated on 2025-04-11 22:27:40 by Eclipse SUMO sumo Version 1.19.0
-->

<configuration xmlns:xsi="http://www.w3.org/2001/XMLSchema-instance" xsi:noNamespaceSchemaLocation="http://sumo.dlr.de/xsd/sumoConfiguration.xsd">

    <input>
        <net-file value="FT.net.xml"/>
        <route-files value="FT.rou.xml"/>
        <additional-files value="FT.add.xml"/>
    </input>

</configuration>
